*Heading
** Job name: Job-2 Model name: Model-1
** Generated by: Abaqus/CAE 2022
*Preprint, echo=NO, model=NO, history=NO, contact=NO
**
** PARTS
**
*Part, name=Part-1
*Node
      1,           0.,          45.
      2,          20.,          45.
      3,          20.,          70.
      4,           0.,          70.
      5,           0.,           0.
      6,          20.,          20.
      7,          70.,          45.
      8,          90.,          45.
      9,          90.,          70.
     10,          70.,          70.
     11,          90.,           0.
     12,          70.,          20.
     13,           2.,          45.
     14,           4.,          45.
     15,           6.,          45.
     16,           8.,          45.
     17,          10.,          45.
     18,          12.,          45.
     19,          14.,          45.
     20,          16.,          45.
** ... 783 like lines cut
*USER ELEMENT, NODES=4, TYPE=U1002, PROPERTIES=4, COORDINATES=2, VARIABLES=1240
1,2,21,22,23
*Element, type=CPE4
 *include, input=read/element_set1.txt
*Element, type=U1002, elset=Set-22
 *include, input=read/element_set2.txt
***1参考波速C_ref 2平均厚度 3pml单元大小 4泊松比 5密度 6剪切模量
*UEL PROPERTY, ELSET=Set-22
550.0, 4.0, 0.4, 0.26, 2000.0, 605000000.0
*Nset, nset=Set-19
   1,   2,   3,   4,   7,   8,   9,  10,  13,  14,  15,  16,  17,  18,  19,  20
  21,  22,  23,  24,  25,  26,  27,  28,  29,  30,  31,  32,  33,  34,  35,  36
  37,  38,  39,  40,  41,  42,  43,  44,  45,  46,  47,  48,  49,  50,  51,  52
  84,  85,  86,  87,  88,  89,  90,  91,  92,  93,  94,  95,  96,  97,  98,  99
 100, 101, 102, 103, 104, 105, 106, 107, 108, 109, 110, 111, 112, 113, 114, 115
 116, 117, 118, 119, 120, 121, 122, 123, 201, 202, 203, 204, 205, 206, 207, 208
 209, 210, 211, 212, 213, 214, 215, 216, 217, 218, 219, 220, 221, 222, 223, 224
 225, 226, 227, 228, 229, 230, 231, 232, 233, 234, 235, 236, 237, 238, 239, 240
 241, 242, 243, 244, 245, 246, 247, 248, 249, 250, 251, 252, 253, 254, 255, 256
 257, 258, 259, 260, 261, 262, 263, 264, 265, 266, 267, 268, 269, 270, 271, 272
 273, 274, 275, 276, 277, 278, 279, 280, 281, 282, 283, 284, 285, 286, 287, 288
 289, 290, 291, 292, 293, 294, 295, 296, 297, 298, 299, 399, 400, 401, 402, 403
 404, 405, 406, 407, 408, 409, 410, 411, 412, 413, 414, 415, 416, 417, 418, 419
 420, 421, 422, 423, 424, 425, 426, 427, 428, 429, 430, 431, 432, 433, 434, 435
 436, 437, 438, 439, 440, 441, 442, 443, 444, 445, 446, 447, 448, 449, 450, 451
 452, 453, 454, 455, 456, 457, 458, 459, 460, 461, 462, 463, 464, 465, 466, 467
 468, 469, 470, 471, 472, 473, 474, 475, 476, 477, 478, 479, 480, 481, 482, 483
 484, 485, 486, 487, 488, 489, 490, 491, 492, 493, 494, 495, 496, 497
*Elset, elset=Set-19
   1,   2,   3,   4,   5,   6,   7,   8,   9,  10,  11,  12,  13,  14,  15,  16
  17,  18,  19,  20,  21,  22,  23,  24,  25,  26,  27,  28,  29,  30,  31,  32
  33,  34,  35,  36,  37,  38,  39,  40,  41,  42,  43,  44,  45,  46,  47,  48
  49,  50,  51,  52,  53,  54,  55,  56,  57,  58,  59,  60,  61,  62,  63,  64
  65,  66,  67,  68,  69,  70,  71,  72,  73,  74,  75,  76,  77,  78,  79,  80
  81,  82,  83,  84,  85,  86,  87,  88,  89,  90,  91,  92,  93,  94,  95,  96
  97,  98,  99, 100, 101, 102, 103, 104, 105, 106, 107, 108, 109, 110, 111, 112
 113, 114, 115, 116, 117, 118, 119, 120, 241, 242, 243, 244, 245, 246, 247, 248
 249, 250, 251, 252, 253, 254, 255, 256, 257, 258, 259, 260, 261, 262, 263, 264
 265, 266, 267, 268, 269, 270, 271, 272, 273, 274, 275, 276, 277, 278, 279, 280
 281, 282, 283, 284, 285, 286, 287, 288, 289, 290, 291, 292, 293, 294, 295, 296
 297, 298, 299, 300, 301, 302, 303, 304, 305, 306, 307, 308, 309, 310, 311, 312
 313, 314, 315, 316, 317, 318, 319, 320, 321, 322, 323, 324, 325, 326, 327, 328
 329, 330, 331, 332, 333, 334, 335, 336, 337, 338, 339, 340, 341, 342, 343, 344
 345, 346, 347, 348, 349, 350, 351, 352, 353, 354, 355, 356, 357, 358, 359, 360
*Nset, nset=Set-20
   1,   2,   5,   6,   7,   8,  11,  12,  13,  14,  15,  16,  17,  18,  19,  20
  21,  53,  54,  55,  56,  57,  58,  59,  60,  61,  62,  63,  64,  65,  66,  67
  68,  69,  70,  71,  72,  73,  74,  75,  76,  77,  78,  79,  80,  81,  82,  83
  84,  85,  86,  87,  88,  89,  90,  91,  92, 124, 125, 126, 127, 128, 129, 130
 131, 132, 133, 134, 135, 136, 137, 138, 139, 140, 141, 142, 143, 144, 145, 146
 147, 148, 149, 150, 151, 152, 153, 154, 155, 156, 157, 158, 159, 160, 161, 162
 163, 164, 165, 166, 167, 168, 169, 170, 171, 172, 173, 174, 175, 176, 177, 178
 179, 180, 181, 182, 183, 184, 185, 186, 187, 188, 189, 190, 191, 192, 193, 194
 195, 196, 197, 198, 199, 200, 300, 301, 302, 303, 304, 305, 306, 307, 308, 309
 310, 311, 312, 313, 314, 315, 316, 317, 318, 319, 320, 321, 322, 323, 324, 325
 326, 327, 328, 329, 330, 331, 332, 333, 334, 335, 336, 337, 338, 339, 340, 341
 342, 343, 344, 345, 346, 347, 348, 349, 350, 351, 352, 353, 354, 355, 356, 357
 358, 359, 360, 361, 362, 363, 364, 365, 366, 367, 368, 369, 370, 371, 372, 373
 374, 375, 376, 377, 378, 379, 380, 381, 382, 383, 384, 385, 386, 387, 388, 389
 390, 391, 392, 393, 394, 395, 396, 397, 398, 498, 499, 500, 501, 502, 503, 504
 505, 506, 507, 508, 509, 510, 511, 512, 513, 514, 515, 516, 517, 518, 519, 520
 521, 522, 523, 524, 525, 526, 527, 528, 529, 530, 531, 532, 533, 534, 535, 536
 537, 538, 539, 540, 541, 542, 543, 544, 545, 546, 547, 548, 549, 550, 551, 552
 553, 554, 555, 556, 557, 558, 559, 560, 561, 562, 563, 564, 565, 566, 567, 568
 569, 570, 571, 572, 573, 574, 575, 576, 577, 578, 579, 580, 581, 582, 583, 584
** ... 14 like lines cut
*Elset, elset=Set-20
 121, 122, 123, 124, 125, 126, 127, 128, 129, 130, 131, 132, 133, 134, 135, 136
 137, 138, 139, 140, 141, 142, 143, 144, 145, 146, 147, 148, 149, 150, 151, 152
 153, 154, 155, 156, 157, 158, 159, 160, 161, 162, 163, 164, 165, 166, 167, 168
 169, 170, 171, 172, 173, 174, 175, 176, 177, 178, 179, 180, 181, 182, 183, 184
 185, 186, 187, 188, 189, 190, 191, 192, 193, 194, 195, 196, 197, 198, 199, 200
 201, 202, 203, 204, 205, 206, 207, 208, 209, 210, 211, 212, 213, 214, 215, 216
 217, 218, 219, 220, 221, 222, 223, 224, 225, 226, 227, 228, 229, 230, 231, 232
 233, 234, 235, 236, 237, 238, 239, 240, 361, 362, 363, 364, 365, 366, 367, 368
 369, 370, 371, 372, 373, 374, 375, 376, 377, 378, 379, 380, 381, 382, 383, 384
 385, 386, 387, 388, 389, 390, 391, 392, 393, 394, 395, 396, 397, 398, 399, 400
 401, 402, 403, 404, 405, 406, 407, 408, 409, 410, 411, 412, 413, 414, 415, 416
 417, 418, 419, 420, 421, 422, 423, 424, 425, 426, 427, 428, 429, 430, 431, 432
 433, 434, 435, 436, 437, 438, 439, 440, 441, 442, 443, 444, 445, 446, 447, 448
 449, 450, 451, 452, 453, 454, 455, 456, 457, 458, 459, 460, 461, 462, 463, 464
 465, 466, 467, 468, 469, 470, 471, 472, 473, 474, 475, 476, 477, 478, 479, 480
 481, 482, 483, 484, 485, 486, 487, 488, 489, 490, 491, 492, 493, 494, 495, 496
 497, 498, 499, 500, 501, 502, 503, 504, 505, 506, 507, 508, 509, 510, 511, 512
 513, 514, 515, 516, 517, 518, 519, 520, 521, 522, 523, 524, 525, 526, 527, 528
 529, 530, 531, 532, 533, 534, 535, 536, 537, 538, 539, 540, 541, 542, 543, 544
 545, 546, 547, 548, 549, 550, 551, 552, 553, 554, 555, 556, 557, 558, 559, 560
** ... 10 like lines cut
*Elset, elset=element_set1
  10,  20,  30,  40,  50,  60,  70,  80,  90, 100, 110, 120, 130, 140, 150, 160
 170, 180, 190, 200, 210, 220, 230, 240, 241, 251, 261, 271, 281, 291, 301, 311
 321, 331, 341, 351, 370, 380, 390, 400, 410, 420, 430, 440, 450, 460, 470, 480
 490, 500, 510, 520, 530, 540, 550, 560, 570, 580, 590, 600, 601, 611, 621, 631
 641, 651, 661, 671, 681, 691, 701, 711
*Elset, elset=element_set2
   1,   2,   3,   4,   5,   6,   7,   8,   9,  11,  12,  13,  14,  15,  16,  17
  18,  19,  21,  22,  23,  24,  25,  26,  27,  28,  29,  31,  32,  33,  34,  35
  36,  37,  38,  39,  41,  42,  43,  44,  45,  46,  47,  48,  49,  51,  52,  53
  54,  55,  56,  57,  58,  59,  61,  62,  63,  64,  65,  66,  67,  68,  69,  71
  72,  73,  74,  75,  76,  77,  78,  79,  81,  82,  83,  84,  85,  86,  87,  88
  89,  91,  92,  93,  94,  95,  96,  97,  98,  99, 101, 102, 103, 104, 105, 106
 107, 108, 109, 111, 112, 113, 114, 115, 116, 117, 118, 119, 121, 122, 123, 124
 125, 126, 127, 128, 129, 131, 132, 133, 134, 135, 136, 137, 138, 139, 141, 142
 143, 144, 145, 146, 147, 148, 149, 151, 152, 153, 154, 155, 156, 157, 158, 159
 161, 162, 163, 164, 165, 166, 167, 168, 169, 171, 172, 173, 174, 175, 176, 177
 178, 179, 181, 182, 183, 184, 185, 186, 187, 188, 189, 191, 192, 193, 194, 195
 196, 197, 198, 199, 201, 202, 203, 204, 205, 206, 207, 208, 209, 211, 212, 213
 214, 215, 216, 217, 218, 219, 221, 222, 223, 224, 225, 226, 227, 228, 229, 231
 232, 233, 234, 235, 236, 237, 238, 239, 242, 243, 244, 245, 246, 247, 248, 249
 250, 252, 253, 254, 255, 256, 257, 258, 259, 260, 262, 263, 264, 265, 266, 267
 268, 269, 270, 272, 273, 274, 275, 276, 277, 278, 279, 280, 282, 283, 284, 285
 286, 287, 288, 289, 290, 292, 293, 294, 295, 296, 297, 298, 299, 300, 302, 303
 304, 305, 306, 307, 308, 309, 310, 312, 313, 314, 315, 316, 317, 318, 319, 320
 322, 323, 324, 325, 326, 327, 328, 329, 330, 332, 333, 334, 335, 336, 337, 338
 339, 340, 342, 343, 344, 345, 346, 347, 348, 349, 350, 352, 353, 354, 355, 356
** ... 21 like lines cut
*Nset, nset=node_set1
   2,   3,   6,   7,  10,  12,  21,  22,  23,  24,  25,  26,  27,  28,  29,  30
  31,  32,  33,  61,  62,  63,  64,  65,  66,  67,  68,  69,  70,  71,  72,  84
 112, 113, 114, 115, 116, 117, 118, 119, 120, 121, 122, 123, 132, 133, 134, 135
 136, 137, 138, 139, 140, 141, 142, 143, 144, 145, 146, 147, 148, 149, 150, 151
 152, 153, 154, 155, 190, 191, 192, 193, 194, 195, 196, 197, 198, 199, 200, 209
 218, 227, 236, 245, 254, 263, 272, 281, 290, 299, 308, 317, 326, 335, 344, 353
 362, 371, 380, 389, 398, 399, 408, 417, 426, 435, 444, 453, 462, 471, 480, 489
 506, 515, 524, 533, 542, 551, 560, 569, 578, 587, 596, 605, 614, 623, 632, 641
 650, 659, 668, 677, 686, 695, 704, 705, 714, 723, 732, 741, 750, 759, 768, 777
 786, 795
*Nset, nset=node_set2
   1,   4,   5,   8,   9,  11,  13,  14,  15,  16,  17,  18,  19,  20,  21,  33
  34,  35,  36,  37,  38,  39,  40,  41,  42,  43,  44,  45,  46,  47,  48,  49
  50,  51,  52,  53,  54,  55,  56,  57,  58,  59,  60,  61,  73,  74,  75,  76
  77,  78,  79,  80,  81,  82,  83,  84,  85,  86,  87,  88,  89,  90,  91,  92
  93,  94,  95,  96,  97,  98,  99, 100, 101, 102, 103, 104, 105, 106, 107, 108
 109, 110, 111, 112, 124, 125, 126, 127, 128, 129, 130, 131, 132, 156, 157, 158
 159, 160, 161, 162, 163, 164, 165, 166, 167, 168, 169, 170, 171, 172, 173, 174
 175, 176, 177, 178, 179, 180, 181, 182, 183, 184, 185, 186, 187, 188, 189, 201
 202, 203, 204, 205, 206, 207, 208, 209, 210, 211, 212, 213, 214, 215, 216, 217
 218, 219, 220, 221, 222, 223, 224, 225, 226, 227, 228, 229, 230, 231, 232, 233
 234, 235, 236, 237, 238, 239, 240, 241, 242, 243, 244, 245, 246, 247, 248, 249
 250, 251, 252, 253, 254, 255, 256, 257, 258, 259, 260, 261, 262, 263, 264, 265
 266, 267, 268, 269, 270, 271, 272, 273, 274, 275, 276, 277, 278, 279, 280, 281
 282, 283, 284, 285, 286, 287, 288, 289, 290, 291, 292, 293, 294, 295, 296, 297
 298, 299, 300, 301, 302, 303, 304, 305, 306, 307, 308, 309, 310, 311, 312, 313
 314, 315, 316, 317, 318, 319, 320, 321, 322, 323, 324, 325, 326, 327, 328, 329
 330, 331, 332, 333, 334, 335, 336, 337, 338, 339, 340, 341, 342, 343, 344, 345
 346, 347, 348, 349, 350, 351, 352, 353, 354, 355, 356, 357, 358, 359, 360, 361
 362, 363, 364, 365, 366, 367, 368, 369, 370, 371, 372, 373, 374, 375, 376, 377
 378, 379, 380, 381, 382, 383, 384, 385, 386, 387, 388, 389, 390, 391, 392, 393
** ... 26 like lines cut
*Nset, nset=cross
  21,  33,  61,  84, 112, 132, 209, 218, 227, 236, 245, 254, 263, 272, 281, 290
 299, 308, 317, 326, 335, 344, 353, 362, 371, 380, 389, 398, 399, 408, 417, 426
 435, 444, 453, 462, 471, 480, 489, 506, 515, 524, 533, 542, 551, 560, 569, 578
 587, 596, 605, 614, 623, 632, 641, 650, 659, 668, 677, 686, 695, 704, 705, 714
 723, 732, 741, 750, 759, 768, 777, 786, 795
*Nset, nset=fixnode
   1,   4,   5,   8,   9,  11,  42,  43,  44,  45,  46,  47,  48,  49,  50,  51
  52,  73,  74,  75,  76,  77,  78,  79,  80,  81,  82,  83,  93,  94,  95,  96
  97,  98,  99, 100, 101, 102, 103, 156, 157, 158, 159, 160, 161, 162, 163, 164
 165, 166, 167, 168, 169, 170, 171, 172, 173, 174, 175, 176, 177, 178, 179, 180
 181, 182, 183, 184, 185, 186, 187, 188, 189
*Elset, elset=pml1
   1,   2,   3,   4,   5,   6,   7,   8,   9,  11,  12,  13,  14,  15,  16,  17
  18,  19,  21,  22,  23,  24,  25,  26,  27,  28,  29,  31,  32,  33,  34,  35
  36,  37,  38,  39,  41,  42,  43,  44,  45,  46,  47,  48,  49,  51,  52,  53
  54,  55,  56,  57,  58,  59,  61,  62,  63,  64,  65,  66,  67,  68,  69,  71
  72,  73,  74,  75,  76,  77,  78,  79,  81,  82,  83,  84,  85,  86,  87,  88
  89,  91,  92,  93,  94,  95,  96,  97,  98,  99, 101, 102, 103, 104, 105, 106
 107, 108, 109, 111, 112, 113, 114, 115, 116, 117, 118, 119, 242, 243, 244, 245
 246, 247, 248, 249, 250, 252, 253, 254, 255, 256, 257, 258, 259, 260, 262, 263
 264, 265, 266, 267, 268, 269, 270, 272, 273, 274, 275, 276, 277, 278, 279, 280
 282, 283, 284, 285, 286, 287, 288, 289, 290, 292, 293, 294, 295, 296, 297, 298
 299, 300, 302, 303, 304, 305, 306, 307, 308, 309, 310, 312, 313, 314, 315, 316
 317, 318, 319, 320, 322, 323, 324, 325, 326, 327, 328, 329, 330, 332, 333, 334
 335, 336, 337, 338, 339, 340, 342, 343, 344, 345, 346, 347, 348, 349, 350, 352
 353, 354, 355, 356, 357, 358, 359, 360
*Elset, elset=pml2
 121, 122, 123, 124, 125, 126, 127, 128, 129, 131, 132, 133, 134, 135, 136, 137
 138, 139, 141, 142, 143, 144, 145, 146, 147, 148, 149, 151, 152, 153, 154, 155
 156, 157, 158, 159, 161, 162, 163, 164, 165, 166, 167, 168, 169, 171, 172, 173
 174, 175, 176, 177, 178, 179, 181, 182, 183, 184, 185, 186, 187, 188, 189, 191
 192, 193, 194, 195, 196, 197, 198, 199, 201, 202, 203, 204, 205, 206, 207, 208
 209, 211, 212, 213, 214, 215, 216, 217, 218, 219, 221, 222, 223, 224, 225, 226
 227, 228, 229, 231, 232, 233, 234, 235, 236, 237, 238, 239, 361, 362, 363, 364
 365, 366, 367, 368, 369, 371, 372, 373, 374, 375, 376, 377, 378, 379, 381, 382
 383, 384, 385, 386, 387, 388, 389, 391, 392, 393, 394, 395, 396, 397, 398, 399
 401, 402, 403, 404, 405, 406, 407, 408, 409, 411, 412, 413, 414, 415, 416, 417
 418, 419, 421, 422, 423, 424, 425, 426, 427, 428, 429, 431, 432, 433, 434, 435
 436, 437, 438, 439, 441, 442, 443, 444, 445, 446, 447, 448, 449, 451, 452, 453
 454, 455, 456, 457, 458, 459, 461, 462, 463, 464, 465, 466, 467, 468, 469, 471
 472, 473, 474, 475, 476, 477, 478, 479, 481, 482, 483, 484, 485, 486, 487, 488
 489, 491, 492, 493, 494, 495, 496, 497, 498, 499, 501, 502, 503, 504, 505, 506
 507, 508, 509, 511, 512, 513, 514, 515, 516, 517, 518, 519, 521, 522, 523, 524
 525, 526, 527, 528, 529, 531, 532, 533, 534, 535, 536, 537, 538, 539, 541, 542
 543, 544, 545, 546, 547, 548, 549, 551, 552, 553, 554, 555, 556, 557, 558, 559
 561, 562, 563, 564, 565, 566, 567, 568, 569, 571, 572, 573, 574, 575, 576, 577
 578, 579, 581, 582, 583, 584, 585, 586, 587, 588, 589, 591, 592, 593, 594, 595
** ... 7 like lines cut
*Elset, elset=m1
  10,  20,  30,  40,  50,  60,  70,  80,  90, 100, 110, 120, 241, 251, 261, 271
 281, 291, 301, 311, 321, 331, 341, 351
*Elset, elset=m2
 130, 140, 150, 160, 170, 180, 190, 200, 210, 220, 230, 240, 370, 380, 390, 400
 410, 420, 430, 440, 450, 460, 470, 480, 490, 500, 510, 520, 530, 540, 550, 560
 570, 580, 590, 600, 601, 611, 621, 631, 641, 651, 661, 671, 681, 691, 701, 711
** Section: Section-1
*Solid Section, elset=m1, material=Material-1
,
** Section: Section-2
*Solid Section, elset=m2, material=Material-2
,
*End Part
**  
*Part, name=Part-2
*Node
      1,          45.,          45.
      2,          70.,          45.
      3,          70.,          70.
      4,          45.,          70.
      5,          45.,          20.
      6,          70.,          20.
      7,          20.,          45.
      8,          20.,          70.
      9,          20.,          20.
     10,   47.0833321,          45.
     11,   49.1666679,          45.
     12,        51.25,          45.
     13,   53.3333321,          45.
     14,   55.4166679,          45.
     15,         57.5,          45.
     16,   59.5833321,          45.
     17,   61.6666679,          45.
     18,        63.75,          45.
     19,   65.8333359,          45.
     20,   67.9166641,          45.
** ... 605 like lines cut
*Element, type=CPE4
  1,   1,  10, 142,  53
  2,  10,  11, 143, 142
  3,  11,  12, 144, 143
  4,  12,  13, 145, 144
  5,  13,  14, 146, 145
  6,  14,  15, 147, 146
  7,  15,  16, 148, 147
  8,  16,  17, 149, 148
  9,  17,  18, 150, 149
 10,  18,  19, 151, 150
 11,  19,  20, 152, 151
 12,  20,   2,  21, 152
 13,  53, 142, 153,  52
 14, 142, 143, 154, 153
 15, 143, 144, 155, 154
 16, 144, 145, 156, 155
 17, 145, 146, 157, 156
 18, 146, 147, 158, 157
 19, 147, 148, 159, 158
 20, 148, 149, 160, 159
** ... 556 like lines cut
*Nset, nset=Set-9
   1,   2,   3,   4,   7,   8,  10,  11,  12,  13,  14,  15,  16,  17,  18,  19
  20,  21,  22,  23,  24,  25,  26,  27,  28,  29,  30,  31,  32,  33,  34,  35
  36,  37,  38,  39,  40,  41,  42,  43,  44,  45,  46,  47,  48,  49,  50,  51
  52,  53,  87,  88,  89,  90,  91,  92,  93,  94,  95,  96,  97,  98,  99, 100
 101, 102, 103, 104, 105, 106, 107, 108, 109, 110, 111, 112, 113, 114, 115, 116
 117, 118, 119, 142, 143, 144, 145, 146, 147, 148, 149, 150, 151, 152, 153, 154
 155, 156, 157, 158, 159, 160, 161, 162, 163, 164, 165, 166, 167, 168, 169, 170
 171, 172, 173, 174, 175, 176, 177, 178, 179, 180, 181, 182, 183, 184, 185, 186
 187, 188, 189, 190, 191, 192, 193, 194, 195, 196, 197, 198, 199, 200, 201, 202
 203, 204, 205, 206, 207, 208, 209, 210, 211, 212, 213, 214, 215, 216, 217, 218
 219, 220, 221, 222, 223, 224, 225, 226, 227, 228, 229, 230, 231, 232, 233, 234
 235, 236, 237, 238, 239, 240, 241, 242, 243, 244, 245, 246, 247, 248, 249, 250
 251, 252, 253, 254, 255, 256, 257, 258, 259, 260, 261, 262, 384, 385, 386, 387
 388, 389, 390, 391, 392, 393, 394, 395, 396, 397, 398, 399, 400, 401, 402, 403
 404, 405, 406, 407, 408, 409, 410, 411, 412, 413, 414, 415, 416, 417, 418, 419
 420, 421, 422, 423, 424, 425, 426, 427, 428, 429, 430, 431, 432, 433, 434, 435
 436, 437, 438, 439, 440, 441, 442, 443, 444, 445, 446, 447, 448, 449, 450, 451
 452, 453, 454, 455, 456, 457, 458, 459, 460, 461, 462, 463, 464, 465, 466, 467
 468, 469, 470, 471, 472, 473, 474, 475, 476, 477, 478, 479, 480, 481, 482, 483
 484, 485, 486, 487, 488, 489, 490, 491, 492, 493, 494, 495, 496, 497, 498, 499
 500, 501, 502, 503, 504
*Elset, elset=Set-9
   1,   2,   3,   4,   5,   6,   7,   8,   9,  10,  11,  12,  13,  14,  15,  16
  17,  18,  19,  20,  21,  22,  23,  24,  25,  26,  27,  28,  29,  30,  31,  32
  33,  34,  35,  36,  37,  38,  39,  40,  41,  42,  43,  44,  45,  46,  47,  48
  49,  50,  51,  52,  53,  54,  55,  56,  57,  58,  59,  60,  61,  62,  63,  64
  65,  66,  67,  68,  69,  70,  71,  72,  73,  74,  75,  76,  77,  78,  79,  80
  81,  82,  83,  84,  85,  86,  87,  88,  89,  90,  91,  92,  93,  94,  95,  96
  97,  98,  99, 100, 101, 102, 103, 104, 105, 106, 107, 108, 109, 110, 111, 112
 113, 114, 115, 116, 117, 118, 119, 120, 121, 122, 123, 124, 125, 126, 127, 128
 129, 130, 131, 132, 133, 134, 135, 136, 137, 138, 139, 140, 141, 142, 143, 144
 289, 290, 291, 292, 293, 294, 295, 296, 297, 298, 299, 300, 301, 302, 303, 304
 305, 306, 307, 308, 309, 310, 311, 312, 313, 314, 315, 316, 317, 318, 319, 320
 321, 322, 323, 324, 325, 326, 327, 328, 329, 330, 331, 332, 333, 334, 335, 336
 337, 338, 339, 340, 341, 342, 343, 344, 345, 346, 347, 348, 349, 350, 351, 352
 353, 354, 355, 356, 357, 358, 359, 360, 361, 362, 363, 364, 365, 366, 367, 368
 369, 370, 371, 372, 373, 374, 375, 376, 377, 378, 379, 380, 381, 382, 383, 384
 385, 386, 387, 388, 389, 390, 391, 392, 393, 394, 395, 396, 397, 398, 399, 400
 401, 402, 403, 404, 405, 406, 407, 408, 409, 410, 411, 412, 413, 414, 415, 416
 417, 418, 419, 420, 421, 422, 423, 424, 425, 426, 427, 428, 429, 430, 431, 432
*Nset, nset=Set-10
   1,   2,   5,   6,   7,   9,  10,  11,  12,  13,  14,  15,  16,  17,  18,  19
  20,  54,  55,  56,  57,  58,  59,  60,  61,  62,  63,  64,  65,  66,  67,  68
  69,  70,  71,  72,  73,  74,  75,  76,  77,  78,  79,  80,  81,  82,  83,  84
  85,  86,  87,  88,  89,  90,  91,  92,  93,  94,  95,  96,  97, 120, 121, 122
 123, 124, 125, 126, 127, 128, 129, 130, 131, 132, 133, 134, 135, 136, 137, 138
 139, 140, 141, 263, 264, 265, 266, 267, 268, 269, 270, 271, 272, 273, 274, 275
 276, 277, 278, 279, 280, 281, 282, 283, 284, 285, 286, 287, 288, 289, 290, 291
 292, 293, 294, 295, 296, 297, 298, 299, 300, 301, 302, 303, 304, 305, 306, 307
 308, 309, 310, 311, 312, 313, 314, 315, 316, 317, 318, 319, 320, 321, 322, 323
 324, 325, 326, 327, 328, 329, 330, 331, 332, 333, 334, 335, 336, 337, 338, 339
 340, 341, 342, 343, 344, 345, 346, 347, 348, 349, 350, 351, 352, 353, 354, 355
 356, 357, 358, 359, 360, 361, 362, 363, 364, 365, 366, 367, 368, 369, 370, 371
 372, 373, 374, 375, 376, 377, 378, 379, 380, 381, 382, 383, 505, 506, 507, 508
 509, 510, 511, 512, 513, 514, 515, 516, 517, 518, 519, 520, 521, 522, 523, 524
 525, 526, 527, 528, 529, 530, 531, 532, 533, 534, 535, 536, 537, 538, 539, 540
 541, 542, 543, 544, 545, 546, 547, 548, 549, 550, 551, 552, 553, 554, 555, 556
 557, 558, 559, 560, 561, 562, 563, 564, 565, 566, 567, 568, 569, 570, 571, 572
 573, 574, 575, 576, 577, 578, 579, 580, 581, 582, 583, 584, 585, 586, 587, 588
 589, 590, 591, 592, 593, 594, 595, 596, 597, 598, 599, 600, 601, 602, 603, 604
 605, 606, 607, 608, 609, 610, 611, 612, 613, 614, 615, 616, 617, 618, 619, 620
 621, 622, 623, 624, 625
*Elset, elset=Set-10
 145, 146, 147, 148, 149, 150, 151, 152, 153, 154, 155, 156, 157, 158, 159, 160
 161, 162, 163, 164, 165, 166, 167, 168, 169, 170, 171, 172, 173, 174, 175, 176
 177, 178, 179, 180, 181, 182, 183, 184, 185, 186, 187, 188, 189, 190, 191, 192
 193, 194, 195, 196, 197, 198, 199, 200, 201, 202, 203, 204, 205, 206, 207, 208
 209, 210, 211, 212, 213, 214, 215, 216, 217, 218, 219, 220, 221, 222, 223, 224
 225, 226, 227, 228, 229, 230, 231, 232, 233, 234, 235, 236, 237, 238, 239, 240
 241, 242, 243, 244, 245, 246, 247, 248, 249, 250, 251, 252, 253, 254, 255, 256
 257, 258, 259, 260, 261, 262, 263, 264, 265, 266, 267, 268, 269, 270, 271, 272
 273, 274, 275, 276, 277, 278, 279, 280, 281, 282, 283, 284, 285, 286, 287, 288
 433, 434, 435, 436, 437, 438, 439, 440, 441, 442, 443, 444, 445, 446, 447, 448
 449, 450, 451, 452, 453, 454, 455, 456, 457, 458, 459, 460, 461, 462, 463, 464
 465, 466, 467, 468, 469, 470, 471, 472, 473, 474, 475, 476, 477, 478, 479, 480
 481, 482, 483, 484, 485, 486, 487, 488, 489, 490, 491, 492, 493, 494, 495, 496
 497, 498, 499, 500, 501, 502, 503, 504, 505, 506, 507, 508, 509, 510, 511, 512
 513, 514, 515, 516, 517, 518, 519, 520, 521, 522, 523, 524, 525, 526, 527, 528
 529, 530, 531, 532, 533, 534, 535, 536, 537, 538, 539, 540, 541, 542, 543, 544
 545, 546, 547, 548, 549, 550, 551, 552, 553, 554, 555, 556, 557, 558, 559, 560
 561, 562, 563, 564, 565, 566, 567, 568, 569, 570, 571, 572, 573, 574, 575, 576
** Section: Section-1
*Solid Section, elset=Set-9, material=Material-1
,
** Section: Section-2
*Solid Section, elset=Set-10, material=Material-2
,
*End Part
**  
**
** ASSEMBLY
**
*Assembly, name=Assembly
**  
*Instance, name=Part-1-1, part=Part-1
*End Instance
**  
*Instance, name=Part-2-1, part=Part-2
*End Instance
**  
*include, input=case1\output.txt
*Nset, nset=Set-1, instance=Part-2-1
 4,
*Nset, nset=Set-2, instance=Part-1-1
   1,   4,   5,   8,   9,  11,  42,  43,  44,  45,  46,  47,  48,  49,  50,  51
  52,  73,  74,  75,  76,  77,  78,  79,  80,  81,  82,  83,  93,  94,  95,  96
  97,  98,  99, 100, 101, 102, 103, 156, 157, 158, 159, 160, 161, 162, 163, 164
 165, 166, 167, 168, 169, 170, 171, 172, 173, 174, 175, 176, 177, 178, 179, 180
 181, 182, 183, 184, 185, 186, 187, 188, 189
*Elset, elset=Set-2, instance=Part-1-1
   1,  11,  21,  31,  41,  51,  61,  71,  81,  91, 101, 111, 121, 131, 141, 151
 161, 171, 181, 191, 201, 211, 221, 231, 250, 260, 270, 280, 290, 300, 310, 320
 330, 340, 350, 360, 361, 371, 381, 391, 401, 411, 421, 431, 441, 451, 461, 471
 481, 491, 501, 511, 521, 531, 541, 551, 561, 571, 581, 591, 610, 620, 630, 640
 650, 660, 670, 680, 690, 700, 710, 720
*Elset, elset=_m_Surf-1_S2, internal, instance=Part-2-1
  12,  24,  36,  48,  60,  72,  84,  96, 108, 120, 132, 144, 156, 168, 180, 192
 204, 216, 228, 240, 252, 264, 276, 288, 444, 456, 468, 480, 492, 504, 516, 528
 540, 552, 564, 576
*Elset, elset=_m_Surf-1_S3, internal, instance=Part-2-1
 277, 278, 279, 280, 281, 282, 283, 284, 285, 286, 287, 288, 565, 566, 567, 568
 569, 570, 571, 572, 573, 574, 575, 576
*Elset, elset=_m_Surf-1_S4, internal, instance=Part-2-1, generate
 289,  421,   12
*Surface, type=ELEMENT, name=m_Surf-1
_m_Surf-1_S2, S2
_m_Surf-1_S3, S3
_m_Surf-1_S4, S4
*Elset, elset=_s_Surf-1_S2, internal, instance=Part-1-1
  10,  20,  30,  40,  50,  60,  70,  80,  90, 100, 110, 120, 130, 140, 150, 160
 170, 180, 190, 200, 210, 220, 230, 240, 370, 380, 390, 400, 410, 420, 430, 440
 450, 460, 470, 480, 490, 500, 510, 520, 530, 540, 550, 560, 570, 580, 590, 600
*Elset, elset=_s_Surf-1_S4, internal, instance=Part-1-1
 241, 251, 261, 271, 281, 291, 301, 311, 321, 331, 341, 351, 601, 611, 621, 631
 641, 651, 661, 671, 681, 691, 701, 711
*Surface, type=ELEMENT, name=s_Surf-1
_s_Surf-1_S2, S2
_s_Surf-1_S4, S4
** Constraint: Constraint-1
*Tie, name=Constraint-1, adjust=no, no rotation
s_Surf-1, m_Surf-1
*End Assembly
*include, input=case1\include1.txt
** 
** MATERIALS
** 
*Material, name=Material-1
*Density
2000.,
*Elastic
 2.08e+08, 0.3
*Material, name=Material-2
*Density
2000.,
*Elastic
 4.68e+08, 0.3
** ----------------------------------------------------------------
** 
** STEP: Step-1
** 
*Step, name=Step-1, nlgeom=NO, inc=100000, unsymm=YES
*Dynamic,direct,nohaf
0.004,3.,
** 
** BOUNDARY CONDITIONS
** 
** Name: BC-1 Type: Symmetry/Antisymmetry/Encastre
*Boundary
Set-2, ENCASTRE
** 
** LOADS
** 
*include, input=case1\output2.txt
** 
** OUTPUT REQUESTS
** 
*Restart, write, frequency=0
** 
** FIELD OUTPUT: F-Output-1
** 
*Output, field, frequency=1
*Node Output
U, 
** 
** HISTORY OUTPUT: H-Output-1
** 
*Output, history, variable=PRESELECT
*End Step
